Circuit: *** SPICE deck for cell 4-bit_comp{lay} from library ComparatorLib

Ignoring BSIM parameter XL
Ignoring BSIM parameter XW
Ignoring BSIM parameter XL
Ignoring BSIM parameter XW
vina1: Removing PWL point (2e-08,0)
vina2: Removing PWL point (2e-08,0)
vina3: Removing PWL point (2e-08,0)
vinb2: Removing PWL point (2e-08,0)
vinb3: Removing PWL point (2e-08,0)
Warning: Ps = 1.134e-05 is less than W.
Early termination of direct N-R iteration.
Direct Newton iteration failed to find .op point.  (Use ".option noopiter" to skip.)
Starting Gmin stepping
Gmin = 10
Gmin = 1.07374
Gmin = 0.115292
Gmin = 0.0123794
Gmin = 0.00132923
Gmin = 0.000142725
Gmin = 1.5325e-05
Gmin = 1.6455e-06
Gmin = 1.76685e-07
Gmin = 1.89714e-08
Gmin = 2.03704e-09
Gmin = 2.18725e-10
Gmin = 2.34854e-11
Gmin = 2.52173e-12
Gmin = 2.70769e-13
Gmin = 0
Gmin stepping succeeded in finding the operating point.



Measurement "tfg" FAIL'ed

Measurement "trg" FAIL'ed
tfe=8.09628e-08 FROM 1.90372e-08 TO 1e-07
tre=8.07672e-08 FROM 1.92328e-08 TO 1e-07
tfl=3.97309e-08 FROM 6.02691e-08 TO 1e-07
trl=8.24404e-08 FROM 1.75596e-08 TO 1e-07


Date: Sat May 18 20:24:53 2024
Total elapsed time: 0.362 seconds.

tnom = 27
temp = 27
method = modified trap
totiter = 2889
traniter = 2506
tranpoints = 1138
accept = 1101
rejected = 37
matrix size = 85
fillins = 170
solver = Normal
Avg thread counts: 4.0/3.5/3.4/2.1
Matrix Compiler1: 21.57 KB object code size  4.8/3.6/[1.9]
Matrix Compiler2: 13.66 KB object code size  2.1/2.4/[1.5]

